<configuration>
	<input>
		<net-file value="data1.net.xml"/>
		<route-files value="routes.rou.xml"/>
	</input>
	<time>
		<begin value="0"/>
		<end value="3600"/>
		<step-length value="1"/>
	</time>
	<processing>
        <collision.action value="remove"/>
    </processing>
	<gui_only>
		<start value="true"/>  <!-- Start the simulation after loading; default: false-->
	</gui_only>
	<gui-settings-file value="vehicle_52.xml"/>
</configuration>
